FINISH
/CLEAR, START
/TITLE, Task8_lower
/NOPR

/PREP7
ET, 1, BEAM188
KEYOPT, 1, 4, 2

MP, EX, 1, 2.06e5
MP, PRXY, 1, 0.3
MP, DENS, 1, 7.85e-9

! Synced from Ship_Panel_Problem
! s_long = 1600
! s_rib = 1200
! q1 = 18
! t_plate = 10
! n_long = 7
! n_rib = 9
! sigma_allow = 400
! bend_allow = 240
! shear_allow = 120

SECTYPE, 1, BEAM, I, LONG_1, 5
SECDATA, 120, 1600, 270, 10, 10, 4
SECTYPE, 2, BEAM, I, LONG_2, 5
SECDATA, 120, 1600, 270, 10, 10, 4
SECTYPE, 3, BEAM, I, LONG_3, 5
SECDATA, 120, 1600, 270, 10, 10, 4
SECTYPE, 4, BEAM, I, LONG_4, 5
SECDATA, 120, 1200, 270, 10, 10, 4
SECTYPE, 5, BEAM, I, RIB_1, 5
SECDATA, 120, 1200, 270, 10, 10, 4
SECTYPE, 6, BEAM, I, RIB_2, 5
SECDATA, 120, 1200, 270, 10, 10, 4
SECTYPE, 7, BEAM, I, RIB_3, 5
SECDATA, 120, 1200, 270, 10, 10, 4
SECTYPE, 8, BEAM, I, RIB_4, 5
SECDATA, 120, 1200, 270, 10, 10, 4
SECTYPE, 9, BEAM, I, RIB_5, 5
SECDATA, 120, 1200, 270, 10, 10, 4

K, 1, -1200, 0, 0
K, 2, 0, 0, 0
K, 3, 1200, 0, 0
K, 4, 2400, 0, 0
K, 5, 3600, 0, 0
K, 6, 4800, 0, 0
K, 7, 6000, 0, 0
K, 8, 7200, 0, 0
K, 9, 8400, 0, 0
K, 10, 9600, 0, 0
K, 11, 10800, 0, 0
K, 12, -1200, 1600, 0
K, 13, 0, 1600, 0
K, 14, 1200, 1600, 0
K, 15, 2400, 1600, 0
K, 16, 3600, 1600, 0
K, 17, 4800, 1600, 0
K, 18, 6000, 1600, 0
K, 19, 7200, 1600, 0
K, 20, 8400, 1600, 0
! ... 75 like lines cut

L, 1, 2
L, 2, 3
L, 3, 4
L, 4, 5
L, 5, 6
L, 6, 7
L, 7, 8
L, 8, 9
L, 9, 10
L, 10, 11
L, 12, 13
L, 13, 14
L, 14, 15
L, 15, 16
L, 16, 17
L, 17, 18
L, 18, 19
L, 19, 20
L, 20, 21
L, 21, 22
! ... 122 like lines cut

K, 1001, -1200, 0, -1000
K, 1002, 10800, 0, -1000
K, 1003, -1200, 1600, -1000
K, 1004, 10800, 1600, -1000
K, 1005, -1200, 3200, -1000
K, 1006, 10800, 3200, -1000
K, 1007, -1200, 4800, -1000
K, 1008, 10800, 4800, -1000
K, 1009, -1200, 6400, -1000
K, 1010, 10800, 6400, -1000
K, 1011, -1200, 8000, -1000
K, 1012, 10800, 8000, -1000
K, 1013, -1200, 9600, -1000
K, 1014, 10800, 9600, -1000
K, 2001, 0, -800, -1000
K, 2002, 0, 10400, -1000
K, 2003, 1200, -800, -1000
K, 2004, 1200, 10400, -1000
K, 2005, 2400, -800, -1000
K, 2006, 2400, 10400, -1000
! ... 12 like lines cut

LSEL, S, LINE, , 1, 10
LATT, 1, , 1, , 1001, , 4
LESIZE, ALL, , , 20
LSEL, S, LINE, , 11, 20
LATT, 1, , 1, , 1003, , 3
LESIZE, ALL, , , 20
LSEL, S, LINE, , 21, 30
LATT, 1, , 1, , 1005, , 2
LESIZE, ALL, , , 20
LSEL, S, LINE, , 31, 40
LATT, 1, , 1, , 1007, , 1
LESIZE, ALL, , , 20
LSEL, S, LINE, , 41, 50
LATT, 1, , 1, , 1009, , 2
LESIZE, ALL, , , 20
LSEL, S, LINE, , 51, 60
LATT, 1, , 1, , 1011, , 3
LESIZE, ALL, , , 20
LSEL, S, LINE, , 61, 70
LATT, 1, , 1, , 1013, , 4
LESIZE, ALL, , , 20
LSEL, S, LINE, , 71, 78
LATT, 1, , 1, , 2001, , 9
LESIZE, ALL, , , 20
LSEL, S, LINE, , 79, 86
LATT, 1, , 1, , 2003, , 8
LESIZE, ALL, , , 20
LSEL, S, LINE, , 87, 94
LATT, 1, , 1, , 2005, , 7
LESIZE, ALL, , , 20
LSEL, S, LINE, , 95, 102
LATT, 1, , 1, , 2007, , 6
LESIZE, ALL, , , 20
LSEL, S, LINE, , 103, 110
LATT, 1, , 1, , 2009, , 5
LESIZE, ALL, , , 20
LSEL, S, LINE, , 111, 118
LATT, 1, , 1, , 2011, , 6
LESIZE, ALL, , , 20
LSEL, S, LINE, , 119, 126
LATT, 1, , 1, , 2013, , 7
LESIZE, ALL, , , 20
LSEL, S, LINE, , 127, 134
LATT, 1, , 1, , 2015, , 8
LESIZE, ALL, , , 20
LSEL, S, LINE, , 135, 142
LATT, 1, , 1, , 2017, , 9
LESIZE, ALL, , , 20

ALLSEL, ALL
LMESH, ALL
ALLSEL, ALL

NSEL, S, LOC, X, -1200
D, ALL, UX, 0
D, ALL, UY, 0
D, ALL, UZ, 0
D, ALL, ROTX, 0
D, ALL, ROTY, 0
D, ALL, ROTZ, 0
ALLSEL, ALL
NSEL, S, LOC, X, 10800
D, ALL, UX, 0
D, ALL, UY, 0
D, ALL, UZ, 0
D, ALL, ROTX, 0
D, ALL, ROTY, 0
D, ALL, ROTZ, 0
ALLSEL, ALL
NSEL, S, LOC, Y, -1600
D, ALL, UX, 0
D, ALL, UY, 0
D, ALL, UZ, 0
ALLSEL, ALL
NSEL, S, LOC, Y, 11200
D, ALL, UX, 0
D, ALL, UY, 0
D, ALL, UZ, 0
ALLSEL, ALL

ESEL, S, SEC, , 5, 9
SFBEAM, ALL, 1, PRES, 18, 18
ALLSEL, ALL

FINISH
/SOLU
ANTYPE, STATIC
OUTRES, ALL, LAST
OUTRES, MISC, LAST
SOLVE
FINISH

/POST1
SET, LAST
/ESHAPE, 1

*GET, sx_max, SECR, ALL, S, X, MAX
*GET, sx_min, SECR, ALL, S, X, MIN
*GET, sxy_max, SECR, ALL, S, XY, MAX
*GET, sxy_min, SECR, ALL, S, XY, MIN
*GET, sxz_max, SECR, ALL, S, XZ, MAX
*GET, sxz_min, SECR, ALL, S, XZ, MIN

max_bend = ABS(sx_max)
*IF,ABS(sx_min),GT,max_bend,THEN
	max_bend = ABS(sx_min)
*ENDIF

max_shear = ABS(sxy_max)
*IF,ABS(sxy_min),GT,max_shear,THEN
	max_shear = ABS(sxy_min)
*ENDIF
*IF,ABS(sxz_max),GT,max_shear,THEN
	max_shear = ABS(sxz_max)
*ENDIF
*IF,ABS(sxz_min),GT,max_shear,THEN
	max_shear = ABS(sxz_min)
*ENDIF

*STATUS,max_bend
*STATUS,max_shear

*CFOPEN, results, txt
*VWRITE, sx_max
(F20.6)
*VWRITE, sx_min
(F20.6)
*VWRITE, sxy_max
(F20.6)
*VWRITE, sxy_min
(F20.6)
*VWRITE, sxz_max
(F20.6)
*VWRITE, sxz_min
(F20.6)

! Total structural mass from FEA model
ALLSEL, ALL
*GET, total_mass, ELEM, 0, MTOT, Z
*VWRITE, total_mass
(E20.10)
*CFCLOS
FINISH
