FINISH
/CLEAR, START
/TITLE, Task9_opt
/NOPR

/PREP7
ET, 1, BEAM188
KEYOPT, 1, 4, 2

MP, EX, 1, 2.06e5
MP, PRXY, 1, 0.3
MP, DENS, 1, 7.85e-9

! Synced from Ship_Panel_Problem
! s_long = 3000
! s_rib = 2000
! q1 = 15
! t_plate = 16
! n_long = 7
! n_rib = 9
! sigma_allow = 900
! bend_allow = 150
! shear_allow = 75

SECTYPE, 1, BEAM, I, LONG_1, 5
SECDATA, 180, 3000, 378, 12, 16, 7
SECTYPE, 2, BEAM, I, LONG_2, 5
SECDATA, 180, 3000, 378, 12, 16, 7
SECTYPE, 3, BEAM, I, LONG_3, 5
SECDATA, 180, 3000, 378, 12, 16, 7
SECTYPE, 4, BEAM, I, LONG_4, 5
SECDATA, 180, 2250, 378, 12, 16, 7
SECTYPE, 5, BEAM, I, RIB_1, 5
SECDATA, 180, 2000, 178, 12, 16, 4
SECTYPE, 6, BEAM, I, RIB_2, 5
SECDATA, 180, 2000, 178, 12, 16, 4
SECTYPE, 7, BEAM, I, RIB_3, 5
SECDATA, 180, 2000, 178, 12, 16, 4
SECTYPE, 8, BEAM, I, RIB_4, 5
SECDATA, 180, 2000, 178, 12, 16, 4

K, 1, -2000, 0, 0
K, 2, 0, 0, 0
K, 3, 2000, 0, 0
K, 4, 4000, 0, 0
K, 5, 6000, 0, 0
K, 6, 8000, 0, 0
K, 7, 10000, 0, 0
K, 8, 12000, 0, 0
K, 9, 14000, 0, 0
K, 10, 16000, 0, 0
K, 11, 18000, 0, 0
K, 12, -2000, 3000, 0
K, 13, 0, 3000, 0
K, 14, 2000, 3000, 0
K, 15, 4000, 3000, 0
K, 16, 6000, 3000, 0
K, 17, 8000, 3000, 0
K, 18, 10000, 3000, 0
K, 19, 12000, 3000, 0
K, 20, 14000, 3000, 0
! ... 75 like lines cut

L, 1, 2
L, 2, 3
L, 3, 4
L, 4, 5
L, 5, 6
L, 6, 7
L, 7, 8
L, 8, 9
L, 9, 10
L, 10, 11
L, 12, 13
L, 13, 14
L, 14, 15
L, 15, 16
L, 16, 17
L, 17, 18
L, 18, 19
L, 19, 20
L, 20, 21
L, 21, 22
! ... 122 like lines cut

K, 1001, -2000, 0, -1000
K, 1002, 18000, 0, -1000
K, 1003, -2000, 3000, -1000
K, 1004, 18000, 3000, -1000
K, 1005, -2000, 6000, -1000
K, 1006, 18000, 6000, -1000
K, 1007, -2000, 9000, -1000
K, 1008, 18000, 9000, -1000
K, 1009, -2000, 12000, -1000
K, 1010, 18000, 12000, -1000
K, 1011, -2000, 15000, -1000
K, 1012, 18000, 15000, -1000
K, 1013, -2000, 18000, -1000
K, 1014, 18000, 18000, -1000
K, 2001, 0, -1500, -1000
K, 2002, 0, 19500, -1000
K, 2003, 2000, -1500, -1000
K, 2004, 2000, 19500, -1000
K, 2005, 4000, -1500, -1000
K, 2006, 4000, 19500, -1000
! ... 12 like lines cut

LSEL, S, LINE, , 1, 10
LATT, 1, , 1, , 1001, , 4
LESIZE, ALL, , , 20
LSEL, S, LINE, , 11, 20
LATT, 1, , 1, , 1003, , 3
LESIZE, ALL, , , 20
LSEL, S, LINE, , 21, 30
LATT, 1, , 1, , 1005, , 2
LESIZE, ALL, , , 20
LSEL, S, LINE, , 31, 40
LATT, 1, , 1, , 1007, , 1
LESIZE, ALL, , , 20
LSEL, S, LINE, , 41, 50
LATT, 1, , 1, , 1009, , 2
LESIZE, ALL, , , 20
LSEL, S, LINE, , 51, 60
LATT, 1, , 1, , 1011, , 3
LESIZE, ALL, , , 20
LSEL, S, LINE, , 61, 70
LATT, 1, , 1, , 1013, , 4
LESIZE, ALL, , , 20
LSEL, S, LINE, , 71, 78
LATT, 1, , 1, , 2001, , 8
LESIZE, ALL, , , 5
LSEL, S, LINE, , 79, 86
LATT, 1, , 1, , 2003, , 8
LESIZE, ALL, , , 5
LSEL, S, LINE, , 87, 94
LATT, 1, , 1, , 2005, , 7
LESIZE, ALL, , , 5
LSEL, S, LINE, , 95, 102
LATT, 1, , 1, , 2007, , 6
LESIZE, ALL, , , 5
LSEL, S, LINE, , 103, 110
LATT, 1, , 1, , 2009, , 5
LESIZE, ALL, , , 5
LSEL, S, LINE, , 111, 118
LATT, 1, , 1, , 2011, , 6
LESIZE, ALL, , , 5
LSEL, S, LINE, , 119, 126
LATT, 1, , 1, , 2013, , 7
LESIZE, ALL, , , 5
LSEL, S, LINE, , 127, 134
LATT, 1, , 1, , 2015, , 8
LESIZE, ALL, , , 5
LSEL, S, LINE, , 135, 142
LATT, 1, , 1, , 2017, , 8
LESIZE, ALL, , , 5

ALLSEL, ALL
LMESH, ALL
ALLSEL, ALL

NSEL, S, LOC, X, -2000
D, ALL, UX, 0
D, ALL, UY, 0
D, ALL, UZ, 0
D, ALL, ROTX, 0
D, ALL, ROTY, 0
D, ALL, ROTZ, 0
ALLSEL, ALL
NSEL, S, LOC, X, 18000
D, ALL, UX, 0
D, ALL, UY, 0
D, ALL, UZ, 0
D, ALL, ROTX, 0
D, ALL, ROTY, 0
D, ALL, ROTZ, 0
ALLSEL, ALL
NSEL, S, LOC, Y, -1500
D, ALL, UX, 0
D, ALL, UY, 0
D, ALL, UZ, 0
ALLSEL, ALL
NSEL, S, LOC, Y, 19500
D, ALL, UX, 0
D, ALL, UY, 0
D, ALL, UZ, 0
ALLSEL, ALL

ESEL, S, SEC, , 5, 8
SFBEAM, ALL, 1, PRES, 15, 15
ALLSEL, ALL

FINISH
/SOLU
ANTYPE, STATIC
OUTRES, ALL, LAST
OUTRES, MISC, LAST
SOLVE
FINISH

/POST1
SET, LAST
/ESHAPE, 1

*GET, sx_max, SECR, ALL, S, X, MAX
*GET, sx_min, SECR, ALL, S, X, MIN
*GET, sxy_max, SECR, ALL, S, XY, MAX
*GET, sxy_min, SECR, ALL, S, XY, MIN
*GET, sxz_max, SECR, ALL, S, XZ, MAX
*GET, sxz_min, SECR, ALL, S, XZ, MIN

max_bend = ABS(sx_max)
*IF,ABS(sx_min),GT,max_bend,THEN
	max_bend = ABS(sx_min)
*ENDIF

max_shear = ABS(sxy_max)
*IF,ABS(sxy_min),GT,max_shear,THEN
	max_shear = ABS(sxy_min)
*ENDIF
*IF,ABS(sxz_max),GT,max_shear,THEN
	max_shear = ABS(sxz_max)
*ENDIF
*IF,ABS(sxz_min),GT,max_shear,THEN
	max_shear = ABS(sxz_min)
*ENDIF

*STATUS,max_bend
*STATUS,max_shear

*CFOPEN, results, txt
*VWRITE, sx_max
(F20.6)
*VWRITE, sx_min
(F20.6)
*VWRITE, sxy_max
(F20.6)
*VWRITE, sxy_min
(F20.6)
*VWRITE, sxz_max
(F20.6)
*VWRITE, sxz_min
(F20.6)

! Total structural mass from FEA model
ALLSEL, ALL
*GET, total_mass, ELEM, 0, MTOT, Z
*VWRITE, total_mass
(E20.10)
*CFCLOS
FINISH
