FINISH
/CLEAR, START
/TITLE, Task6_opt
/NOPR

/PREP7
ET, 1, BEAM188
KEYOPT, 1, 4, 2

MP, EX, 1, 2.06e5
MP, PRXY, 1, 0.3
MP, DENS, 1, 7.85e-9

! Synced from Ship_Panel_Problem
! s_long = 2400
! s_rib = 1800
! q1 = 16.6667
! t_plate = 12
! n_long = 3
! n_rib = 9
! sigma_allow = 220
! bend_allow = 150
! shear_allow = 75

SECTYPE, 1, BEAM, I, LONG_C, 5
SECDATA, 150, 2400, 272, 10, 12, 5
SECTYPE, 2, BEAM, I, LONG_S, 5
SECDATA, 150, 1800, 272, 10, 12, 5
SECTYPE, 3, BEAM, I, RIB_1, 5
SECDATA, 150, 1200, 167, 5, 12, 5
SECTYPE, 4, BEAM, I, RIB_2, 5
SECDATA, 150, 1200, 167, 5, 12, 5
SECTYPE, 5, BEAM, I, RIB_3, 5
SECDATA, 150, 1200, 167, 5, 12, 5
SECTYPE, 6, BEAM, I, RIB_4, 5
SECDATA, 150, 1200, 167, 5, 12, 5

K, 1, -900, 0, 0
K, 2, 0, 0, 0
K, 3, 1800, 0, 0
K, 4, 3600, 0, 0
K, 5, 5400, 0, 0
K, 6, 7200, 0, 0
K, 7, 9000, 0, 0
K, 8, 10800, 0, 0
K, 9, 12600, 0, 0
K, 10, 14400, 0, 0
K, 11, 15300, 0, 0
K, 12, -900, 2400, 0
K, 13, 0, 2400, 0
K, 14, 1800, 2400, 0
K, 15, 3600, 2400, 0
K, 16, 5400, 2400, 0
K, 17, 7200, 2400, 0
K, 18, 9000, 2400, 0
K, 19, 10800, 2400, 0
K, 20, 12600, 2400, 0
! ... 31 like lines cut

L, 1, 2
L, 2, 3
L, 3, 4
L, 4, 5
L, 5, 6
L, 6, 7
L, 7, 8
L, 8, 9
L, 9, 10
L, 10, 11
L, 12, 13
L, 13, 14
L, 14, 15
L, 15, 16
L, 16, 17
L, 17, 18
L, 18, 19
L, 19, 20
L, 20, 21
L, 21, 22
! ... 46 like lines cut

K, 1001, -900, 0, -1000
K, 1002, 15300, 0, -1000
K, 1003, -900, 2400, -1000
K, 1004, 15300, 2400, -1000
K, 1005, -900, 4800, -1000
K, 1006, 15300, 4800, -1000
K, 2001, 0, -1200, -1000
K, 2002, 0, 6000, -1000
K, 2003, 1800, -1200, -1000
K, 2004, 1800, 6000, -1000
K, 2005, 3600, -1200, -1000
K, 2006, 3600, 6000, -1000
K, 2007, 5400, -1200, -1000
K, 2008, 5400, 6000, -1000
K, 2009, 7200, -1200, -1000
K, 2010, 7200, 6000, -1000
K, 2011, 9000, -1200, -1000
K, 2012, 9000, 6000, -1000
K, 2013, 10800, -1200, -1000
K, 2014, 10800, 6000, -1000
! ... 4 like lines cut

LSEL, S, LINE, , 1, 10
LATT, 1, , 1, , 1001, , 2
LESIZE, ALL, , , 20
LSEL, S, LINE, , 11, 20
LATT, 1, , 1, , 1003, , 1
LESIZE, ALL, , , 20
LSEL, S, LINE, , 21, 30
LATT, 1, , 1, , 1005, , 2
LESIZE, ALL, , , 20
LSEL, S, LINE, , 31, 34
LATT, 1, , 1, , 2001, , 6
LESIZE, ALL, , , 5
LSEL, S, LINE, , 35, 38
LATT, 1, , 1, , 2003, , 6
LESIZE, ALL, , , 5
LSEL, S, LINE, , 39, 42
LATT, 1, , 1, , 2005, , 5
LESIZE, ALL, , , 5
LSEL, S, LINE, , 43, 46
LATT, 1, , 1, , 2007, , 4
LESIZE, ALL, , , 5
LSEL, S, LINE, , 47, 50
LATT, 1, , 1, , 2009, , 3
LESIZE, ALL, , , 5
LSEL, S, LINE, , 51, 54
LATT, 1, , 1, , 2011, , 4
LESIZE, ALL, , , 5
LSEL, S, LINE, , 55, 58
LATT, 1, , 1, , 2013, , 5
LESIZE, ALL, , , 5
LSEL, S, LINE, , 59, 62
LATT, 1, , 1, , 2015, , 6
LESIZE, ALL, , , 5
LSEL, S, LINE, , 63, 66
LATT, 1, , 1, , 2017, , 6
LESIZE, ALL, , , 5

ALLSEL, ALL
LMESH, ALL
ALLSEL, ALL

NSEL, S, LOC, X, -900
D, ALL, UX, 0
D, ALL, UY, 0
D, ALL, UZ, 0
D, ALL, ROTX, 0
D, ALL, ROTY, 0
D, ALL, ROTZ, 0
ALLSEL, ALL
NSEL, S, LOC, X, 15300
D, ALL, UX, 0
D, ALL, UY, 0
D, ALL, UZ, 0
D, ALL, ROTX, 0
D, ALL, ROTY, 0
D, ALL, ROTZ, 0
ALLSEL, ALL
NSEL, S, LOC, Y, -1200
D, ALL, UX, 0
D, ALL, UY, 0
D, ALL, UZ, 0
ALLSEL, ALL
NSEL, S, LOC, Y, 6000
D, ALL, UX, 0
D, ALL, UY, 0
D, ALL, UZ, 0
ALLSEL, ALL

ESEL, S, SEC, , 3, 6
SFBEAM, ALL, 1, PRES, 16.6667, 16.6667
ALLSEL, ALL

FINISH
/SOLU
ANTYPE, STATIC
OUTRES, ALL, LAST
OUTRES, MISC, LAST
SOLVE
FINISH

/POST1
SET, LAST
/ESHAPE, 1

*GET, sx_max, SECR, ALL, S, X, MAX
*GET, sx_min, SECR, ALL, S, X, MIN
*GET, sxy_max, SECR, ALL, S, XY, MAX
*GET, sxy_min, SECR, ALL, S, XY, MIN
*GET, sxz_max, SECR, ALL, S, XZ, MAX
*GET, sxz_min, SECR, ALL, S, XZ, MIN

max_bend = ABS(sx_max)
*IF,ABS(sx_min),GT,max_bend,THEN
	max_bend = ABS(sx_min)
*ENDIF

max_shear = ABS(sxy_max)
*IF,ABS(sxy_min),GT,max_shear,THEN
	max_shear = ABS(sxy_min)
*ENDIF
*IF,ABS(sxz_max),GT,max_shear,THEN
	max_shear = ABS(sxz_max)
*ENDIF
*IF,ABS(sxz_min),GT,max_shear,THEN
	max_shear = ABS(sxz_min)
*ENDIF

*STATUS,max_bend
*STATUS,max_shear

*CFOPEN, results, txt
*VWRITE, sx_max
(F20.6)
*VWRITE, sx_min
(F20.6)
*VWRITE, sxy_max
(F20.6)
*VWRITE, sxy_min
(F20.6)
*VWRITE, sxz_max
(F20.6)
*VWRITE, sxz_min
(F20.6)

! Total structural mass from FEA model
ALLSEL, ALL
*GET, total_mass, ELEM, 0, MTOT, Z
*VWRITE, total_mass
(E20.10)
*CFCLOS
FINISH
