FINISH
/CLEAR, START
/TITLE, Task9_opt
/NOPR

/PREP7
ET, 1, BEAM188
KEYOPT, 1, 4, 2

MP, EX, 1, 2.06e5
MP, PRXY, 1, 0.3
MP, DENS, 1, 7.85e-9

SECTYPE, 1, BEAM, I, LONG_1, 5
SECDATA, 156.901, 133.333, 419.976, 10.4337, 12, 10.4102
SECTYPE, 2, BEAM, I, LONG_2, 5
SECDATA, 160.464, 133.333, 402.545, 12.2569, 12, 9.86231
SECTYPE, 3, BEAM, I, LONG_3, 5
SECDATA, 166.174, 133.333, 411.615, 9.78068, 12, 8.61479
SECTYPE, 4, BEAM, I, LONG_4, 5
SECDATA, 152.37, 133.333, 423.669, 9.91205, 12, 7
SECTYPE, 5, BEAM, I, RIB_1, 5
SECDATA, 55.8293, 400, 205.172, 9.69426, 12, 10.417
SECTYPE, 6, BEAM, I, RIB_2, 5
SECDATA, 63.37, 400, 251.913, 9.082, 12, 8.68274
SECTYPE, 7, BEAM, I, RIB_3, 5
SECDATA, 106.035, 400, 225.363, 8.2632, 12, 7.54684
SECTYPE, 8, BEAM, I, RIB_4, 5
SECDATA, 74.2175, 400, 173.751, 7.81187, 12, 8.04629
SECTYPE, 9, BEAM, I, RIB_5, 5
SECDATA, 120, 400, 269.07, 7.12633, 12, 6.27386

K, 1, -400, 0, 0
K, 2, 0, 0, 0
K, 3, 800, 0, 0
K, 4, 1600, 0, 0
K, 5, 2400, 0, 0
K, 6, 3200, 0, 0
K, 7, 4000, 0, 0
K, 8, 4800, 0, 0
K, 9, 5600, 0, 0
K, 10, 6400, 0, 0
K, 11, 6800, 0, 0
K, 12, -400, 2400, 0
K, 13, 0, 2400, 0
K, 14, 800, 2400, 0
K, 15, 1600, 2400, 0
K, 16, 2400, 2400, 0
K, 17, 3200, 2400, 0
K, 18, 4000, 2400, 0
K, 19, 4800, 2400, 0
K, 20, 5600, 2400, 0
! ... 75 like lines cut

L, 1, 2
L, 2, 3
L, 3, 4
L, 4, 5
L, 5, 6
L, 6, 7
L, 7, 8
L, 8, 9
L, 9, 10
L, 10, 11
L, 12, 13
L, 13, 14
L, 14, 15
L, 15, 16
L, 16, 17
L, 17, 18
L, 18, 19
L, 19, 20
L, 20, 21
L, 21, 22
! ... 122 like lines cut

K, 1001, -400, 0, -1000
K, 1002, 6800, 0, -1000
K, 1003, -400, 2400, -1000
K, 1004, 6800, 2400, -1000
K, 1005, -400, 4800, -1000
K, 1006, 6800, 4800, -1000
K, 1007, -400, 7200, -1000
K, 1008, 6800, 7200, -1000
K, 1009, -400, 9600, -1000
K, 1010, 6800, 9600, -1000
K, 1011, -400, 12000, -1000
K, 1012, 6800, 12000, -1000
K, 1013, -400, 14400, -1000
K, 1014, 6800, 14400, -1000
K, 2001, 0, -1200, -1000
K, 2002, 0, 15600, -1000
K, 2003, 800, -1200, -1000
K, 2004, 800, 15600, -1000
K, 2005, 1600, -1200, -1000
K, 2006, 1600, 15600, -1000
! ... 12 like lines cut

LSEL, S, LINE, , 1, 10
LATT, 1, , 1, , 1001, , 4
LESIZE, ALL, , , 20
LSEL, S, LINE, , 11, 20
LATT, 1, , 1, , 1003, , 3
LESIZE, ALL, , , 20
LSEL, S, LINE, , 21, 30
LATT, 1, , 1, , 1005, , 2
LESIZE, ALL, , , 20
LSEL, S, LINE, , 31, 40
LATT, 1, , 1, , 1007, , 1
LESIZE, ALL, , , 20
LSEL, S, LINE, , 41, 50
LATT, 1, , 1, , 1009, , 2
LESIZE, ALL, , , 20
LSEL, S, LINE, , 51, 60
LATT, 1, , 1, , 1011, , 3
LESIZE, ALL, , , 20
LSEL, S, LINE, , 61, 70
LATT, 1, , 1, , 1013, , 4
LESIZE, ALL, , , 20
LSEL, S, LINE, , 71, 78
LATT, 1, , 1, , 2001, , 9
LESIZE, ALL, , , 5
LSEL, S, LINE, , 79, 86
LATT, 1, , 1, , 2003, , 8
LESIZE, ALL, , , 5
LSEL, S, LINE, , 87, 94
LATT, 1, , 1, , 2005, , 7
LESIZE, ALL, , , 5
LSEL, S, LINE, , 95, 102
LATT, 1, , 1, , 2007, , 6
LESIZE, ALL, , , 5
LSEL, S, LINE, , 103, 110
LATT, 1, , 1, , 2009, , 5
LESIZE, ALL, , , 5
LSEL, S, LINE, , 111, 118
LATT, 1, , 1, , 2011, , 6
LESIZE, ALL, , , 5
LSEL, S, LINE, , 119, 126
LATT, 1, , 1, , 2013, , 7
LESIZE, ALL, , , 5
LSEL, S, LINE, , 127, 134
LATT, 1, , 1, , 2015, , 8
LESIZE, ALL, , , 5
LSEL, S, LINE, , 135, 142
LATT, 1, , 1, , 2017, , 9
LESIZE, ALL, , , 5

ALLSEL, ALL
LMESH, ALL
ALLSEL, ALL

NSEL, S, LOC, X, -400
D, ALL, UX, 0
D, ALL, UY, 0
D, ALL, UZ, 0
D, ALL, ROTX, 0
D, ALL, ROTY, 0
D, ALL, ROTZ, 0
ALLSEL, ALL
NSEL, S, LOC, X, 6800
D, ALL, UX, 0
D, ALL, UY, 0
D, ALL, UZ, 0
D, ALL, ROTX, 0
D, ALL, ROTY, 0
D, ALL, ROTZ, 0
ALLSEL, ALL
NSEL, S, LOC, Y, -1200
D, ALL, UX, 0
D, ALL, UY, 0
D, ALL, UZ, 0
ALLSEL, ALL
NSEL, S, LOC, Y, 15600
D, ALL, UX, 0
D, ALL, UY, 0
D, ALL, UZ, 0
ALLSEL, ALL

ESEL, S, SEC, , 5, 9
SFBEAM, ALL, 1, PRES, 25, 25
ALLSEL, ALL

FINISH
/SOLU
ANTYPE, STATIC
OUTRES, ALL, LAST
OUTRES, MISC, LAST
SOLVE
FINISH

/POST1
SET, LAST
/ESHAPE, 1

*GET, sx_max, SECR, ALL, S, X, MAX
*GET, sx_min, SECR, ALL, S, X, MIN
*GET, sxy_max, SECR, ALL, S, XY, MAX
*GET, sxy_min, SECR, ALL, S, XY, MIN
*GET, sxz_max, SECR, ALL, S, XZ, MAX
*GET, sxz_min, SECR, ALL, S, XZ, MIN

*CFOPEN, eval_t9_tped41848e_25cf_4379_bb26_ceb375cdb2bb_results, txt
*VWRITE, sx_max
(F20.6)
*VWRITE, sx_min
(F20.6)
*VWRITE, sxy_max
(F20.6)
*VWRITE, sxy_min
(F20.6)
*VWRITE, sxz_max
(F20.6)
*VWRITE, sxz_min
(F20.6)

! Total structural mass from FEA model
ALLSEL, ALL
*GET, total_mass, ELEM, 0, MTOT, Z
*VWRITE, total_mass
(E20.10)
*CFCLOS
FINISH
