FINISH
/CLEAR, START
/TITLE, Task3_base
/NOPR

/PREP7
ET, 1, BEAM188
KEYOPT, 1, 4, 2

MP, EX, 1, 2.06e5
MP, PRXY, 1, 0.3
MP, DENS, 1, 7.85e-9

SECTYPE, 1, BEAM, I, LONG_C, 5
SECDATA, 170, 200, 425, 15, 10, 7
SECTYPE, 2, BEAM, I, LONG_S, 5
SECDATA, 170, 200, 425, 15, 10, 7
SECTYPE, 3, BEAM, I, RIB, 5
SECDATA, 150, 266.667, 234, 14, 10, 6

K, 1, -1200, 0, 0
K, 2, 0, 0, 0
K, 3, 1200, 0, 0
K, 4, 2400, 0, 0
K, 5, 3600, 0, 0
K, 6, 4800, 0, 0
K, 7, 6000, 0, 0
K, 8, -1200, 1600, 0
K, 9, 0, 1600, 0
K, 10, 1200, 1600, 0
K, 11, 2400, 1600, 0
K, 12, 3600, 1600, 0
K, 13, 4800, 1600, 0
K, 14, 6000, 1600, 0
K, 15, -1200, 3200, 0
K, 16, 0, 3200, 0
K, 17, 1200, 3200, 0
K, 18, 2400, 3200, 0
K, 19, 3600, 3200, 0
K, 20, 4800, 3200, 0
! ... 11 like lines cut

L, 1, 2
L, 2, 3
L, 3, 4
L, 4, 5
L, 5, 6
L, 6, 7
L, 8, 9
L, 9, 10
L, 10, 11
L, 11, 12
L, 12, 13
L, 13, 14
L, 15, 16
L, 16, 17
L, 17, 18
L, 18, 19
L, 19, 20
L, 20, 21
L, 22, 2
L, 2, 9
! ... 18 like lines cut

K, 1001, -1200, 0, -1000
K, 1002, 6000, 0, -1000
K, 1003, -1200, 1600, -1000
K, 1004, 6000, 1600, -1000
K, 1005, -1200, 3200, -1000
K, 1006, 6000, 3200, -1000
K, 2001, 0, -800, -1000
K, 2002, 0, 4000, -1000
K, 2003, 1200, -800, -1000
K, 2004, 1200, 4000, -1000
K, 2005, 2400, -800, -1000
K, 2006, 2400, 4000, -1000
K, 2007, 3600, -800, -1000
K, 2008, 3600, 4000, -1000
K, 2009, 4800, -800, -1000
K, 2010, 4800, 4000, -1000

LSEL, S, LINE, , 1, 6
LATT, 1, , 1, , 1001, , 2
LESIZE, ALL, , , 20
LSEL, S, LINE, , 7, 12
LATT, 1, , 1, , 1003, , 1
LESIZE, ALL, , , 20
LSEL, S, LINE, , 13, 18
LATT, 1, , 1, , 1005, , 2
LESIZE, ALL, , , 20
LSEL, S, LINE, , 19, 22
LATT, 1, , 1, , 2001, , 3
LESIZE, ALL, , , 5
LSEL, S, LINE, , 23, 26
LATT, 1, , 1, , 2003, , 3
LESIZE, ALL, , , 5
LSEL, S, LINE, , 27, 30
LATT, 1, , 1, , 2005, , 3
LESIZE, ALL, , , 5
LSEL, S, LINE, , 31, 34
LATT, 1, , 1, , 2007, , 3
LESIZE, ALL, , , 5
LSEL, S, LINE, , 35, 38
LATT, 1, , 1, , 2009, , 3
LESIZE, ALL, , , 5

ALLSEL, ALL
LMESH, ALL
ALLSEL, ALL

NSEL, S, LOC, X, -1200
D, ALL, UX, 0
D, ALL, UY, 0
D, ALL, UZ, 0
D, ALL, ROTX, 0
D, ALL, ROTY, 0
D, ALL, ROTZ, 0
ALLSEL, ALL
NSEL, S, LOC, X, 6000
D, ALL, UX, 0
D, ALL, UY, 0
D, ALL, UZ, 0
D, ALL, ROTX, 0
D, ALL, ROTY, 0
D, ALL, ROTZ, 0
ALLSEL, ALL
NSEL, S, LOC, Y, -800
D, ALL, UX, 0
D, ALL, UY, 0
D, ALL, UZ, 0
ALLSEL, ALL
NSEL, S, LOC, Y, 4000
D, ALL, UX, 0
D, ALL, UY, 0
D, ALL, UZ, 0
ALLSEL, ALL

ESEL, S, SEC, , 3, 3
SFBEAM, ALL, 1, PRES, 18, 18
ALLSEL, ALL

SAVE, task3_base_model, db
FINISH
