FINISH
/CLEAR, START
/TITLE, Task5_opt
/NOPR

/PREP7
ET, 1, BEAM188
KEYOPT, 1, 4, 2

MP, EX, 1, 2.06e5
MP, PRXY, 1, 0.3
MP, DENS, 1, 7.85e-9

SECTYPE, 1, BEAM, I, LONG_C, 5
SECDATA, 178.252, 133, 417.644, 10.3723, 12, 11.3883
SECTYPE, 2, BEAM, I, LONG_S, 5
SECDATA, 179.931, 133, 399.301, 13.1422, 12, 10.8206
SECTYPE, 3, BEAM, I, RIB, 5
SECDATA, 62.199, 400, 254.777, 6.96646, 12, 6.17027
SECTYPE, 4, BEAM, I, LONG_O, 5
SECDATA, 118.721, 133, 367.459, 11.8393, 12, 9.91528

K, 1, -400, 0, 0
K, 2, 0, 0, 0
K, 3, 800, 0, 0
K, 4, 1600, 0, 0
K, 5, 2400, 0, 0
K, 6, 3200, 0, 0
K, 7, 3600, 0, 0
K, 8, -400, 2400, 0
K, 9, 0, 2400, 0
K, 10, 800, 2400, 0
K, 11, 1600, 2400, 0
K, 12, 2400, 2400, 0
K, 13, 3200, 2400, 0
K, 14, 3600, 2400, 0
K, 15, -400, 4800, 0
K, 16, 0, 4800, 0
K, 17, 800, 4800, 0
K, 18, 1600, 4800, 0
K, 19, 2400, 4800, 0
K, 20, 3200, 4800, 0
! ... 25 like lines cut

L, 1, 2
L, 2, 3
L, 3, 4
L, 4, 5
L, 5, 6
L, 6, 7
L, 8, 9
L, 9, 10
L, 10, 11
L, 11, 12
L, 12, 13
L, 13, 14
L, 15, 16
L, 16, 17
L, 17, 18
L, 18, 19
L, 19, 20
L, 20, 21
L, 22, 23
L, 23, 24
! ... 40 like lines cut

K, 1001, -400, 0, -1000
K, 1002, 3600, 0, -1000
K, 1003, -400, 2400, -1000
K, 1004, 3600, 2400, -1000
K, 1005, -400, 4800, -1000
K, 1006, 3600, 4800, -1000
K, 1007, -400, 7200, -1000
K, 1008, 3600, 7200, -1000
K, 1009, -400, 9600, -1000
K, 1010, 3600, 9600, -1000
K, 2001, 0, -1200, -1000
K, 2002, 0, 10800, -1000
K, 2003, 800, -1200, -1000
K, 2004, 800, 10800, -1000
K, 2005, 1600, -1200, -1000
K, 2006, 1600, 10800, -1000
K, 2007, 2400, -1200, -1000
K, 2008, 2400, 10800, -1000
K, 2009, 3200, -1200, -1000
K, 2010, 3200, 10800, -1000

LSEL, S, LINE, , 1, 6
LATT, 1, , 1, , 1001, , 4
LESIZE, ALL, , , 6
LSEL, S, LINE, , 7, 12
LATT, 1, , 1, , 1003, , 2
LESIZE, ALL, , , 6
LSEL, S, LINE, , 13, 18
LATT, 1, , 1, , 1005, , 1
LESIZE, ALL, , , 6
LSEL, S, LINE, , 19, 24
LATT, 1, , 1, , 1007, , 2
LESIZE, ALL, , , 6
LSEL, S, LINE, , 25, 30
LATT, 1, , 1, , 1009, , 4
LESIZE, ALL, , , 6
LSEL, S, LINE, , 31, 36
LATT, 1, , 1, , 2001, , 3
LESIZE, ALL, , , 6
LSEL, S, LINE, , 37, 42
LATT, 1, , 1, , 2003, , 3
LESIZE, ALL, , , 6
LSEL, S, LINE, , 43, 48
LATT, 1, , 1, , 2005, , 3
LESIZE, ALL, , , 6
LSEL, S, LINE, , 49, 54
LATT, 1, , 1, , 2007, , 3
LESIZE, ALL, , , 6
LSEL, S, LINE, , 55, 60
LATT, 1, , 1, , 2009, , 3
LESIZE, ALL, , , 6

ALLSEL, ALL
LMESH, ALL
ALLSEL, ALL

NSEL, S, LOC, X, -400
D, ALL, UX, 0
D, ALL, UY, 0
D, ALL, UZ, 0
D, ALL, ROTX, 0
D, ALL, ROTY, 0
D, ALL, ROTZ, 0
ALLSEL, ALL
NSEL, S, LOC, X, 3600
D, ALL, UX, 0
D, ALL, UY, 0
D, ALL, UZ, 0
D, ALL, ROTX, 0
D, ALL, ROTY, 0
D, ALL, ROTZ, 0
ALLSEL, ALL
NSEL, S, LOC, Y, -1200
D, ALL, UX, 0
D, ALL, UY, 0
D, ALL, UZ, 0
ALLSEL, ALL
NSEL, S, LOC, Y, 10800
D, ALL, UX, 0
D, ALL, UZ, 0
ALLSEL, ALL

ESEL, S, SEC, , 3
SFBEAM, ALL, 1, PRES, 25, 25
ALLSEL, ALL

FINISH
/SOLU
ANTYPE, STATIC
OUTRES, ALL, LAST
OUTRES, MISC, LAST
SOLVE
FINISH

/POST1
SET, LAST
RSYS, SOLU
/GRAPHICS, FULL
/ESHAPE, 1

*GET, sx_max, SECR, ALL, S, X, MAX
*GET, sx_min, SECR, ALL, S, X, MIN
*GET, sxy_max, SECR, ALL, S, XY, MAX
*GET, sxy_min, SECR, ALL, S, XY, MIN
*GET, sxz_max, SECR, ALL, S, XZ, MAX
*GET, sxz_min, SECR, ALL, S, XZ, MIN

*CFOPEN, eval_t5_tp1e83bb27_2a11_4588_8866_88b00ae845f4_results, txt
*VWRITE, sx_max
(F20.6)
*VWRITE, sx_min
(F20.6)
*VWRITE, sxy_max
(F20.6)
*VWRITE, sxy_min
(F20.6)
*VWRITE, sxz_max
(F20.6)
*VWRITE, sxz_min
(F20.6)

! Total structural mass from FEA model
ALLSEL, ALL
*GET, total_mass, ELEM, 0, MTOT, Z
*VWRITE, total_mass
(E20.10)
*CFCLOS
FINISH
