FINISH
/CLEAR, START
/TITLE, Task5_base
/NOPR

/PREP7
ET, 1, BEAM188
KEYOPT, 1, 4, 2

MP, EX, 1, 2.06e5
MP, PRXY, 1, 0.3
MP, DENS, 1, 7.85e-9

SECTYPE, 1, BEAM, I, LONG_C, 5
SECDATA, 225, 2400, 427, 15, 12, 8
SECTYPE, 2, BEAM, I, LONG_S, 5
SECDATA, 225, 1800, 427, 15, 12, 8
SECTYPE, 3, BEAM, I, RIB_1, 5
SECDATA, 225, 1200, 245, 8, 12, 8
SECTYPE, 4, BEAM, I, RIB_2, 5
SECDATA, 225, 1200, 245, 8, 12, 8
SECTYPE, 5, BEAM, I, RIB_3, 5
SECDATA, 225, 1200, 245, 8, 12, 8
SECTYPE, 6, BEAM, I, RIB_4, 5
SECDATA, 225, 1200, 245, 8, 12, 8

K, 1, -1800, 0, 0
K, 2, 0, 0, 0
K, 3, 1800, 0, 0
K, 4, 3600, 0, 0
K, 5, 5400, 0, 0
K, 6, 7200, 0, 0
K, 7, 9000, 0, 0
K, 8, 10800, 0, 0
K, 9, 12600, 0, 0
K, 10, -1800, 2400, 0
K, 11, 0, 2400, 0
K, 12, 1800, 2400, 0
K, 13, 3600, 2400, 0
K, 14, 5400, 2400, 0
K, 15, 7200, 2400, 0
K, 16, 9000, 2400, 0
K, 17, 10800, 2400, 0
K, 18, 12600, 2400, 0
K, 19, -1800, 4800, 0
K, 20, 0, 4800, 0
! ... 21 like lines cut

L, 1, 2
L, 2, 3
L, 3, 4
L, 4, 5
L, 5, 6
L, 6, 7
L, 7, 8
L, 8, 9
L, 10, 11
L, 11, 12
L, 12, 13
L, 13, 14
L, 14, 15
L, 15, 16
L, 16, 17
L, 17, 18
L, 19, 20
L, 20, 21
L, 21, 22
L, 22, 23
! ... 32 like lines cut

K, 1001, -1800, 0, -1000
K, 1002, 12600, 0, -1000
K, 1003, -1800, 2400, -1000
K, 1004, 12600, 2400, -1000
K, 1005, -1800, 4800, -1000
K, 1006, 12600, 4800, -1000
K, 2001, 0, -1200, -1000
K, 2002, 0, 6000, -1000
K, 2003, 1800, -1200, -1000
K, 2004, 1800, 6000, -1000
K, 2005, 3600, -1200, -1000
K, 2006, 3600, 6000, -1000
K, 2007, 5400, -1200, -1000
K, 2008, 5400, 6000, -1000
K, 2009, 7200, -1200, -1000
K, 2010, 7200, 6000, -1000
K, 2011, 9000, -1200, -1000
K, 2012, 9000, 6000, -1000
K, 2013, 10800, -1200, -1000
K, 2014, 10800, 6000, -1000

LSEL, S, LINE, , 1, 8
LATT, 1, , 1, , 1001, , 2
LESIZE, ALL, , , 20
LSEL, S, LINE, , 9, 16
LATT, 1, , 1, , 1003, , 1
LESIZE, ALL, , , 20
LSEL, S, LINE, , 17, 24
LATT, 1, , 1, , 1005, , 2
LESIZE, ALL, , , 20
LSEL, S, LINE, , 25, 28
LATT, 1, , 1, , 2001, , 6
LESIZE, ALL, , , 5
LSEL, S, LINE, , 29, 32
LATT, 1, , 1, , 2003, , 5
LESIZE, ALL, , , 5
LSEL, S, LINE, , 33, 36
LATT, 1, , 1, , 2005, , 4
LESIZE, ALL, , , 5
LSEL, S, LINE, , 37, 40
LATT, 1, , 1, , 2007, , 3
LESIZE, ALL, , , 5
LSEL, S, LINE, , 41, 44
LATT, 1, , 1, , 2009, , 4
LESIZE, ALL, , , 5
LSEL, S, LINE, , 45, 48
LATT, 1, , 1, , 2011, , 5
LESIZE, ALL, , , 5
LSEL, S, LINE, , 49, 52
LATT, 1, , 1, , 2013, , 6
LESIZE, ALL, , , 5

ALLSEL, ALL
LMESH, ALL
ALLSEL, ALL

NSEL, S, LOC, X, -1800
D, ALL, UX, 0
D, ALL, UY, 0
D, ALL, UZ, 0
D, ALL, ROTX, 0
D, ALL, ROTY, 0
D, ALL, ROTZ, 0
ALLSEL, ALL
NSEL, S, LOC, X, 12600
D, ALL, UX, 0
D, ALL, UY, 0
D, ALL, UZ, 0
D, ALL, ROTX, 0
D, ALL, ROTY, 0
D, ALL, ROTZ, 0
ALLSEL, ALL
NSEL, S, LOC, Y, -1200
D, ALL, UX, 0
D, ALL, UY, 0
D, ALL, UZ, 0
ALLSEL, ALL
NSEL, S, LOC, Y, 6000
D, ALL, UX, 0
D, ALL, UY, 0
D, ALL, UZ, 0
ALLSEL, ALL

ESEL, S, SEC, , 3, 6
SFBEAM, ALL, 1, PRES, 16.6667, 16.6667
ALLSEL, ALL

SAVE, task5_base_model, db
FINISH
