FINISH
/CLEAR, START
/TITLE, Task3_opt
/NOPR

/PREP7
ET, 1, BEAM188
KEYOPT, 1, 4, 2

MP, EX, 1, 2.06e5
MP, PRXY, 1, 0.3
MP, DENS, 1, 7.85e-9

SECTYPE, 1, BEAM, I, LONG_C, 5
SECDATA, 126.163, 266.667, 435.114, 8.69205, 12, 9.07542
SECTYPE, 2, BEAM, I, LONG_S, 5
SECDATA, 147.454, 266.667, 377.123, 8.95647, 12, 7.95394
SECTYPE, 3, BEAM, I, RIB_C, 5
SECDATA, 82.3888, 333.333, 219.931, 8.1195, 12, 7.79972
SECTYPE, 4, BEAM, I, RIB_S, 5
SECDATA, 81.6265, 333.333, 233.105, 9.7324, 12, 10.7705
SECTYPE, 5, BEAM, I, RIB_O, 5
SECDATA, 99.2, 333.333, 169.347, 7.82718, 12, 10.7614

K, 1, -800, 0, 0
K, 2, 0, 0, 0
K, 3, 800, 0, 0
K, 4, 1600, 0, 0
K, 5, 2400, 0, 0
K, 6, 3200, 0, 0
K, 7, 4000, 0, 0
K, 8, -800, 1000, 0
K, 9, 0, 1000, 0
K, 10, 800, 1000, 0
K, 11, 1600, 1000, 0
K, 12, 2400, 1000, 0
K, 13, 3200, 1000, 0
K, 14, 4000, 1000, 0
K, 15, -800, 2000, 0
K, 16, 0, 2000, 0
K, 17, 800, 2000, 0
K, 18, 1600, 2000, 0
K, 19, 2400, 2000, 0
K, 20, 3200, 2000, 0
! ... 11 like lines cut

L, 1, 2
L, 2, 3
L, 3, 4
L, 4, 5
L, 5, 6
L, 6, 7
L, 8, 9
L, 9, 10
L, 10, 11
L, 11, 12
L, 12, 13
L, 13, 14
L, 15, 16
L, 16, 17
L, 17, 18
L, 18, 19
L, 19, 20
L, 20, 21
L, 22, 2
L, 2, 9
! ... 18 like lines cut

K, 1001, -800, 0, -1000
K, 1002, 4000, 0, -1000
K, 1003, -800, 1000, -1000
K, 1004, 4000, 1000, -1000
K, 1005, -800, 2000, -1000
K, 1006, 4000, 2000, -1000
K, 2001, 0, -1000, -1000
K, 2002, 0, 3000, -1000
K, 2003, 800, -1000, -1000
K, 2004, 800, 3000, -1000
K, 2005, 1600, -1000, -1000
K, 2006, 1600, 3000, -1000
K, 2007, 2400, -1000, -1000
K, 2008, 2400, 3000, -1000
K, 2009, 3200, -1000, -1000
K, 2010, 3200, 3000, -1000

LSEL, S, LINE, , 1, 6
LATT, 1, , 1, , 1001, , 2
LESIZE, ALL, , , 20
LSEL, S, LINE, , 7, 12
LATT, 1, , 1, , 1003, , 1
LESIZE, ALL, , , 20
LSEL, S, LINE, , 13, 18
LATT, 1, , 1, , 1005, , 2
LESIZE, ALL, , , 20
LSEL, S, LINE, , 19, 22
LATT, 1, , 1, , 2001, , 5
LESIZE, ALL, , , 5
LSEL, S, LINE, , 23, 26
LATT, 1, , 1, , 2003, , 4
LESIZE, ALL, , , 5
LSEL, S, LINE, , 27, 30
LATT, 1, , 1, , 2005, , 3
LESIZE, ALL, , , 5
LSEL, S, LINE, , 31, 34
LATT, 1, , 1, , 2007, , 4
LESIZE, ALL, , , 5
LSEL, S, LINE, , 35, 38
LATT, 1, , 1, , 2009, , 5
LESIZE, ALL, , , 5

ALLSEL, ALL
LMESH, ALL
ALLSEL, ALL

NSEL, S, LOC, X, -800
D, ALL, UX, 0
D, ALL, UY, 0
D, ALL, UZ, 0
D, ALL, ROTX, 0
D, ALL, ROTY, 0
D, ALL, ROTZ, 0
ALLSEL, ALL
NSEL, S, LOC, X, 4000
D, ALL, UX, 0
D, ALL, UY, 0
D, ALL, UZ, 0
D, ALL, ROTX, 0
D, ALL, ROTY, 0
D, ALL, ROTZ, 0
ALLSEL, ALL
NSEL, S, LOC, Y, -1000
D, ALL, UX, 0
D, ALL, UY, 0
D, ALL, UZ, 0
ALLSEL, ALL
NSEL, S, LOC, Y, 3000
D, ALL, UX, 0
D, ALL, UY, 0
D, ALL, UZ, 0
ALLSEL, ALL

ESEL, S, SEC, , 3, 5
SFBEAM, ALL, 1, PRES, 18, 18
ALLSEL, ALL

FINISH
/SOLU
ANTYPE, STATIC
OUTRES, ALL, LAST
OUTRES, MISC, LAST
SOLVE
FINISH

/POST1
SET, LAST
/ESHAPE, 1

*GET, sx_max, SECR, ALL, S, X, MAX
*GET, sx_min, SECR, ALL, S, X, MIN
*GET, sxy_max, SECR, ALL, S, XY, MAX
*GET, sxy_min, SECR, ALL, S, XY, MIN
*GET, sxz_max, SECR, ALL, S, XZ, MAX
*GET, sxz_min, SECR, ALL, S, XZ, MIN

*CFOPEN, eval_t3_tp4dd15384_160e_4e69_8cc8_f541d2b80650_results, txt
*VWRITE, sx_max
(F20.6)
*VWRITE, sx_min
(F20.6)
*VWRITE, sxy_max
(F20.6)
*VWRITE, sxy_min
(F20.6)
*VWRITE, sxz_max
(F20.6)
*VWRITE, sxz_min
(F20.6)

! Total structural mass from FEA model
ALLSEL, ALL
*GET, total_mass, ELEM, 0, MTOT, Z
*VWRITE, total_mass
(E20.10)
*CFCLOS
FINISH
