FINISH
/CLEAR, START
/TITLE, Task4_base
/NOPR

/PREP7
ET, 1, BEAM188
KEYOPT, 1, 4, 2

MP, EX, 1, 2.06e5
MP, PRXY, 1, 0.3
MP, DENS, 1, 7.85e-9

SECTYPE, 1, BEAM, I, LONG_C, 5
SECDATA, 225, 1800, 427, 15, 12, 8
SECTYPE, 2, BEAM, I, LONG_S, 5
SECDATA, 225, 1800, 427, 15, 12, 8
SECTYPE, 3, BEAM, I, RIB_C, 5
SECDATA, 225, 1200, 427, 15, 12, 8
SECTYPE, 4, BEAM, I, RIB_S, 5
SECDATA, 225, 1200, 427, 15, 12, 8
SECTYPE, 5, BEAM, I, RIB_O, 5
SECDATA, 225, 1200, 427, 15, 12, 8

K, 1, -1800, 0, 0
K, 2, 0, 0, 0
K, 3, 1800, 0, 0
K, 4, 3600, 0, 0
K, 5, 5400, 0, 0
K, 6, 7200, 0, 0
K, 7, 9000, 0, 0
K, 8, -1800, 2400, 0
K, 9, 0, 2400, 0
K, 10, 1800, 2400, 0
K, 11, 3600, 2400, 0
K, 12, 5400, 2400, 0
K, 13, 7200, 2400, 0
K, 14, 9000, 2400, 0
K, 15, -1800, 4800, 0
K, 16, 0, 4800, 0
K, 17, 1800, 4800, 0
K, 18, 3600, 4800, 0
K, 19, 5400, 4800, 0
K, 20, 7200, 4800, 0
! ... 11 like lines cut

L, 1, 2
L, 2, 3
L, 3, 4
L, 4, 5
L, 5, 6
L, 6, 7
L, 8, 9
L, 9, 10
L, 10, 11
L, 11, 12
L, 12, 13
L, 13, 14
L, 15, 16
L, 16, 17
L, 17, 18
L, 18, 19
L, 19, 20
L, 20, 21
L, 22, 2
L, 2, 9
! ... 18 like lines cut

K, 1001, -1800, 0, -1000
K, 1002, 9000, 0, -1000
K, 1003, -1800, 2400, -1000
K, 1004, 9000, 2400, -1000
K, 1005, -1800, 4800, -1000
K, 1006, 9000, 4800, -1000
K, 2001, 0, -1200, -1000
K, 2002, 0, 6000, -1000
K, 2003, 1800, -1200, -1000
K, 2004, 1800, 6000, -1000
K, 2005, 3600, -1200, -1000
K, 2006, 3600, 6000, -1000
K, 2007, 5400, -1200, -1000
K, 2008, 5400, 6000, -1000
K, 2009, 7200, -1200, -1000
K, 2010, 7200, 6000, -1000

LSEL, S, LINE, , 1, 6
LATT, 1, , 1, , 1001, , 2
LESIZE, ALL, , , 20
LSEL, S, LINE, , 7, 12
LATT, 1, , 1, , 1003, , 1
LESIZE, ALL, , , 20
LSEL, S, LINE, , 13, 18
LATT, 1, , 1, , 1005, , 2
LESIZE, ALL, , , 20
LSEL, S, LINE, , 19, 22
LATT, 1, , 1, , 2001, , 5
LESIZE, ALL, , , 5
LSEL, S, LINE, , 23, 26
LATT, 1, , 1, , 2003, , 4
LESIZE, ALL, , , 5
LSEL, S, LINE, , 27, 30
LATT, 1, , 1, , 2005, , 3
LESIZE, ALL, , , 5
LSEL, S, LINE, , 31, 34
LATT, 1, , 1, , 2007, , 4
LESIZE, ALL, , , 5
LSEL, S, LINE, , 35, 38
LATT, 1, , 1, , 2009, , 5
LESIZE, ALL, , , 5

ALLSEL, ALL
LMESH, ALL
ALLSEL, ALL

NSEL, S, LOC, X, -1800
D, ALL, UX, 0
D, ALL, UY, 0
D, ALL, UZ, 0
D, ALL, ROTX, 0
D, ALL, ROTY, 0
D, ALL, ROTZ, 0
ALLSEL, ALL
NSEL, S, LOC, X, 9000
D, ALL, UX, 0
D, ALL, UY, 0
D, ALL, UZ, 0
D, ALL, ROTX, 0
D, ALL, ROTY, 0
D, ALL, ROTZ, 0
ALLSEL, ALL
NSEL, S, LOC, Y, -1200
D, ALL, UX, 0
D, ALL, UY, 0
D, ALL, UZ, 0
ALLSEL, ALL
NSEL, S, LOC, Y, 6000
D, ALL, UX, 0
D, ALL, UY, 0
D, ALL, UZ, 0
ALLSEL, ALL

ESEL, S, SEC, , 3, 5
SFBEAM, ALL, 1, PRES, 16.6667, 16.6667
ALLSEL, ALL

SAVE, task4_base_model, db
FINISH
